/*--------------------------------*- C++ -*----------------------------------*\
  =========                 |
  \\      /  F ield         | OpenFOAM: The Open Source CFD Toolbox
   \\    /   O peration     | Website:  https://openfoam.org
    \\  /    A nd           | Version:  13
     \\/     M anipulation  |
\*---------------------------------------------------------------------------*/
FoamFile
{
	format      ascii;
	class       dictionary;
	object      blockMeshDict;
}
// * * * * * * * * * * * * * * * * * * * * * * * * * * * * * * * * * * * * * //

convertToMeters 1;

geometry
{
}

vertices
(
	// Vertices block96
	name v0 (-6.84270122 96.25709034 37.51500000)
	name v1 (0.00000000 96.50000000 37.51500000)
	name v2 (0.00000000 96.72500000 37.51500000)
	name v3 (-6.41773346 97.66954473 37.51500000)
	name v4 (-6.84270122 96.25709034 40.20000000)
	name v5 (0.00000000 96.50000000 40.20000000)
	name v6 (0.00000000 96.72500000 40.20000000)
	name v7 (-6.41773346 97.66954473 40.20000000)

	// Vertices block53
	name v8 (-6.84270122 96.25709034 34.75000000)
	name v9 (0.00000000 96.50000000 34.75000000)
	name v10 (0.00000000 96.72500000 34.75000000)
	name v11 (-6.41773346 97.66954473 34.75000000)

	// Vertices block50
	name v12 (-7.77290299 139.87480788 34.75000000)
	name v13 (0.00000000 141.27500000 34.75000000)
	name v14 (0.00000000 141.50000000 34.75000000)
	name v15 (-8.28760700 141.25709034 34.75000000)
	name v16 (-7.77290299 139.87480788 37.51500000)
	name v17 (0.00000000 141.27500000 37.51500000)
	name v18 (0.00000000 141.50000000 37.51500000)
	name v19 (-8.28760700 141.25709034 37.51500000)

	// Vertices block2
	name v20 (-6.84270122 96.25709034 -34.75000000)
	name v21 (0.00000000 96.50000000 -34.75000000)
	name v22 (0.00000000 96.72500000 -34.75000000)
	name v23 (-6.41773346 97.66954473 -34.75000000)

	// Vertices block11
	name v24 (-7.77290299 139.87480788 -34.75000000)
	name v25 (0.00000000 141.27500000 -34.75000000)
	name v26 (0.00000000 141.50000000 -34.75000000)
	name v27 (-8.28760700 141.25709034 -34.75000000)

	// Vertices block19
	name v28 (-7.77290299 139.87480788 -37.51500000)
	name v29 (0.00000000 141.27500000 -37.51500000)
	name v30 (0.00000000 141.50000000 -37.51500000)
	name v31 (-8.28760700 141.25709034 -37.51500000)

	// Vertices block79
	name v32 (-6.84270122 96.25709034 -40.20000000)
	name v33 (0.00000000 96.50000000 -40.20000000)
	name v34 (0.00000000 96.72500000 -40.20000000)
	name v35 (-6.41773346 97.66954473 -40.20000000)
	name v36 (-6.84270122 96.25709034 -37.51500000)
	name v37 (0.00000000 96.50000000 -37.51500000)
	name v38 (0.00000000 96.72500000 -37.51500000)
	name v39 (-6.41773346 97.66954473 -37.51500000)

	// Vertices block77
	name v40 (-21.47327013 94.08054353 -40.20000000)
	name v41 (-19.81818854 105.91176471 -40.20000000)
	name v42 (-23.97663063 105.04848254 -40.20000000)
	name v43 (-21.47327013 94.08054353 -37.51500000)
	name v44 (-19.81818854 105.91176471 -37.51500000)
	name v45 (-23.97663063 105.04848254 -37.51500000)

	// Vertices block93
	name v46 (-29.92906562 131.12780419 -40.20000000)
	name v47 (-19.08241714 133.13944328 -40.20000000)
	name v48 (-18.73845567 133.59221639 -40.20000000)
	name v49 (-30.01807399 131.51777535 -40.20000000)
	name v50 (-29.92906562 131.12780419 -37.51500000)
	name v51 (-19.08241714 133.13944328 -37.51500000)
	name v52 (-18.73845567 133.59221639 -37.51500000)
	name v53 (-30.01807399 131.51777535 -37.51500000)

	// Vertices block23
	name v54 (-21.47327013 94.08054353 -34.75000000)
	name v55 (-19.81818854 105.91176471 -34.75000000)
	name v56 (-23.97663063 105.04848254 -34.75000000)

	// Vertices block0
	name v57 (-21.47327013 94.08054353 34.75000000)
	name v58 (-19.81818854 105.91176471 34.75000000)
	name v59 (-23.97663063 105.04848254 34.75000000)

	// Vertices block54
	name v60 (-21.47327013 94.08054353 37.51500000)
	name v61 (-19.81818854 105.91176471 37.51500000)
	name v62 (-23.97663063 105.04848254 37.51500000)

	// Vertices block94
	name v63 (-21.47327013 94.08054353 40.20000000)
	name v64 (-19.81818854 105.91176471 40.20000000)
	name v65 (-23.97663063 105.04848254 40.20000000)

	// Vertices block110
	name v66 (-29.92906562 131.12780419 37.51500000)
	name v67 (-19.08241714 133.13944328 37.51500000)
	name v68 (-18.73845567 133.59221639 37.51500000)
	name v69 (-30.01807399 131.51777535 37.51500000)
	name v70 (-29.92906562 131.12780419 40.20000000)
	name v71 (-19.08241714 133.13944328 40.20000000)
	name v72 (-18.73845567 133.59221639 40.20000000)
	name v73 (-30.01807399 131.51777535 40.20000000)

	// Vertices block78
	name v74 (-18.22797054 106.19700368 -40.20000000)
	name v75 (-18.22797054 106.19700368 -37.51500000)

	// Vertices block88
	name v76 (-16.97363152 133.42468225 -40.20000000)
	name v77 (-16.97363152 133.42468225 -37.51500000)

	// Vertices block21
	name v78 (-18.22797054 106.19700368 -34.75000000)

	// Vertices block1
	name v79 (-18.22797054 106.19700368 34.75000000)

	// Vertices block52
	name v80 (-18.22797054 106.19700368 37.51500000)

	// Vertices block95
	name v81 (-18.22797054 106.19700368 40.20000000)

	// Vertices block105
	name v82 (-16.97363152 133.42468225 37.51500000)
	name v83 (-16.97363152 133.42468225 40.20000000)

	// Vertices block18
	name v84 (-16.57820699 133.87745536 -37.51500000)
	name v85 (-18.73845567 133.59221639 -34.75000000)
	name v86 (-16.57820699 133.87745536 -34.75000000)

	// Vertices block9
	name v87 (-18.73845567 133.59221639 34.75000000)
	name v88 (-16.57820699 133.87745536 34.75000000)

	// Vertices block49
	name v89 (-16.57820699 133.87745536 37.51500000)

	// Vertices Solid190
	name v90 (-21.47327013 94.08054353 -47.60000000)
	name v91 (-6.84270122 96.25709034 -47.60000000)
	name v92 (-19.81818854 105.91176471 -47.60000000)
	name v93 (-23.97663063 105.04848254 -47.60000000)

	// Vertices Solid192
	name v94 (-21.47327013 94.08054353 -54.00000000)
	name v95 (-6.84270122 96.25709034 -54.00000000)
	name v96 (-19.81818854 105.91176471 -54.00000000)
	name v97 (-23.97663063 105.04848254 -54.00000000)

	// Vertices Solid203
	name v98 (0.00000000 96.50000000 -47.60000000)
	name v99 (0.00000000 96.72500000 -47.60000000)
	name v100 (-6.41773346 97.66954473 -47.60000000)

	// Vertices Solid204
	name v101 (-18.22797054 106.19700368 -47.60000000)

	// Vertices Solid205
	name v102 (0.00000000 96.50000000 -54.00000000)
	name v103 (0.00000000 96.72500000 -54.00000000)
	name v104 (-6.41773346 97.66954473 -54.00000000)

	// Vertices Solid206
	name v105 (-18.22797054 106.19700368 -54.00000000)

	// Vertices Solid246
	name v106 (-25.51202508 111.77548513 46.10000000)
	name v107 (-22.80276746 112.35949580 46.10000000)
	name v108 (-23.09820608 124.52588235 46.10000000)
	name v109 (-28.18227629 123.47462008 46.10000000)
	name v110 (-25.51202508 111.77548513 46.70000000)
	name v111 (-22.80276746 112.35949580 46.70000000)
	name v112 (-23.09820608 124.52588235 46.70000000)
	name v113 (-28.18227629 123.47462008 46.70000000)

	// Vertices block121
	name v114 (-23.09820608 124.52588235 54.00000000)
	name v115 (-28.18227629 123.47462008 54.00000000)
	name v116 (-25.51202508 111.77548513 54.00000000)
	name v117 (-22.80276746 112.35949580 54.00000000)

	// Vertices Solid252
	name v118 (-28.18227629 123.47462008 41.70000000)
	name v119 (-23.09820608 124.52588235 41.70000000)
	name v120 (-22.05127847 128.90204314 41.70000000)
	name v121 (-29.10008579 127.49580626 41.70000000)
	name v122 (-22.05127847 128.90204316 46.10000000)
	name v123 (-29.10008580 127.49580628 46.10000000)

	// Vertices Solid254
	name v124 (-24.59421557 107.75429895 41.70000000)
	name v125 (-21.64538053 108.38515527 41.70000000)
	name v126 (-22.80276746 112.35949580 41.70000000)
	name v127 (-25.51202508 111.77548513 41.70000000)
	name v128 (-24.59421557 107.75429895 46.10000000)
	name v129 (-21.64538053 108.38515525 46.10000000)

	// Vertices Solid256
	name v130 (-22.05127847 128.90204316 46.70000000)
	name v131 (-29.10008580 127.49580628 46.70000000)

	// Vertices Solid258
	name v132 (-24.59421557 107.75429895 46.70000000)
	name v133 (-21.64538053 108.38515525 46.70000000)

	// Vertices block126
	name v134 (-22.05127847 128.90204316 54.00000000)
	name v135 (-29.10008580 127.49580628 54.00000000)

	// Vertices block116
	name v136 (-24.59421557 107.75429893 54.00000000)
	name v137 (-21.64538053 108.38515525 54.00000000)

	// Vertices block20
	name v138 (-16.97363152 133.42468225 -34.75000000)
	name v139 (-19.08241714 133.13944328 -34.75000000)

	// Vertices block51
	name v140 (-16.97363152 133.42468225 34.75000000)
	name v141 (-19.08241714 133.13944328 34.75000000)

	// Vertices block104
	name v142 (-15.74995669 106.59268908 37.51500000)
	name v143 (-13.50404394 133.82036765 37.51500000)
	name v144 (-15.74995669 106.59268908 40.20000000)
	name v145 (-13.50404394 133.82036765 40.20000000)

	// Vertices block87
	name v146 (-15.74995669 106.59268908 -40.20000000)
	name v147 (-13.50404394 133.82036765 -40.20000000)
	name v148 (-15.74995669 106.59268908 -37.51500000)
	name v149 (-13.50404394 133.82036765 -37.51500000)

	// Vertices block47
	name v150 (-29.92906562 131.12780419 34.75000000)
	name v151 (-30.01807399 131.51777535 34.75000000)

	// Vertices block46
	name v152 (-31.48671215 137.95229957 34.75000000)
	name v153 (-31.48671215 137.95229957 37.51500000)

	// Vertices block14
	name v154 (-29.92906562 131.12780419 -34.75000000)
	name v155 (-30.01807399 131.51777535 -34.75000000)

	// Vertices block13
	name v156 (-31.48671215 137.95229957 -34.75000000)

	// Vertices block15
	name v157 (-31.48671215 137.95229957 -37.51500000)

	// Vertices block60
	name v158 (-17.15980973 106.37482517 36.30815763)
	name v159 (-15.74995669 106.59268908 36.75000000)
	name v160 (-13.50404394 133.82036765 36.75000000)
	name v161 (-15.51196292 133.60250374 36.30815763)

	// Vertices block62
	name v162 (-12.98975255 134.27314076 36.75000000)
	name v163 (-15.07291439 134.05527685 36.30815763)
	name v164 (-12.98975255 134.27314076 37.51500000)

	// Vertices block6
	name v165 (-17.98213057 106.23890756 -34.75000000)
	name v166 (-16.64092502 133.46658613 -34.75000000)
	name v167 (-17.98213057 106.23890756 34.75000000)
	name v168 (-16.64092502 133.46658613 34.75000000)

	// Vertices block8
	name v169 (-16.23623170 133.91935924 -34.75000000)
	name v170 (-16.23623170 133.91935924 34.75000000)

	// Vertices block28
	name v171 (-17.15980973 106.37482517 -36.30815763)
	name v172 (-15.51196292 133.60250374 -36.30815763)

	// Vertices block30
	name v173 (-15.07291439 134.05527685 -36.30815763)

	// Vertices block29
	name v174 (-15.74995669 106.59268908 -36.75000000)
	name v175 (-13.50404394 133.82036765 -36.75000000)

	// Vertices block31
	name v176 (-12.98975255 134.27314076 -37.51500000)
	name v177 (-12.98975255 134.27314076 -36.75000000)

	// Vertices block89
	name v178 (-16.57820699 133.87745536 -40.20000000)

	// Vertices block106
	name v179 (-16.57820699 133.87745536 40.20000000)

	// Vertices block90
	name v180 (-12.98975255 134.27314076 -40.20000000)

	// Vertices block107
	name v181 (-12.98975255 134.27314076 40.20000000)

	// Vertices Solid350
	name v182 (-16.97363152 133.42468225 -47.60000000)
	name v183 (-13.50404394 133.82036765 -47.60000000)
	name v184 (-12.98975255 134.27314076 -47.60000000)
	name v185 (-16.57820699 133.87745536 -47.60000000)

	// Vertices Solid351
	name v186 (-19.08241714 133.13944328 -47.60000000)
	name v187 (-18.73845567 133.59221639 -47.60000000)

	// Vertices Solid352
	name v188 (-29.92906562 131.12780419 -47.60000000)
	name v189 (-30.01807399 131.51777535 -47.60000000)

	// Vertices Solid354
	name v190 (-29.92906562 131.12780419 -54.00000000)
	name v191 (-19.08241714 133.13944328 -54.00000000)
	name v192 (-18.73845567 133.59221639 -54.00000000)
	name v193 (-30.01807399 131.51777535 -54.00000000)

	// Vertices Solid356
	name v194 (-16.97363152 133.42468225 -54.00000000)
	name v195 (-16.57820699 133.87745536 -54.00000000)

	// Vertices Solid358
	name v196 (-13.50404394 133.82036765 -54.00000000)
	name v197 (-12.98975255 134.27314076 -54.00000000)

	// Vertices Solid364
	name v198 (-15.74995669 106.59268908 -54.00000000)
	name v199 (-15.74995669 106.59268908 -47.60000000)

	// Vertices Solid366
	name v200 (-29.92906562 131.12780419 46.70000000)
	name v201 (-19.08241714 133.13944328 46.70000000)
	name v202 (-18.73845567 133.59221639 46.70000000)
	name v203 (-30.01807399 131.51777535 46.70000000)

	// Vertices Solid368
	name v204 (-16.97363152 133.42468225 46.70000000)
	name v205 (-16.57820699 133.87745536 46.70000000)

	// Vertices Solid370
	name v206 (-13.50404394 133.82036765 46.70000000)
	name v207 (-12.98975255 134.27314076 46.70000000)

	// Vertices Solid372
	name v208 (-6.84270122 96.25709034 46.70000000)
	name v209 (-19.81818854 105.91176471 46.70000000)
	name v210 (-23.97663063 105.04848254 46.70000000)
	name v211 (-21.47327013 94.08054353 46.70000000)
	name v212 (-6.84270122 96.25709034 54.00000000)
	name v213 (-19.81818854 105.91176471 54.00000000)
	name v214 (-23.97663063 105.04848254 54.00000000)
	name v215 (-21.47327013 94.08054353 54.00000000)

	// Vertices Solid386
	name v216 (-16.97363152 133.42468225 54.00000000)
	name v217 (-13.50404394 133.82036765 54.00000000)
	name v218 (-12.98975255 134.27314076 54.00000000)
	name v219 (-16.57820699 133.87745536 54.00000000)

	// Vertices Solid427
	name v220 (0.00000000 98.95000000 -54.00000000)
	name v221 (-5.77668040 99.80019626 -54.00000000)
	name v222 (0.00000000 98.95000000 -47.60000000)
	name v223 (-5.77668040 99.80019626 -47.60000000)

	// Vertices Solid431
	name v224 (-6.41773346 97.66954473 46.70000000)
	name v225 (0.00000000 96.50000000 46.70000000)
	name v226 (0.00000000 96.72500000 46.70000000)
	name v227 (-6.41773346 97.66954473 54.00000000)
	name v228 (0.00000000 96.50000000 54.00000000)
	name v229 (0.00000000 96.72500000 54.00000000)

	// Vertices Solid432
	name v230 (-18.22797054 106.19700368 46.70000000)
	name v231 (-18.22797054 106.19700368 54.00000000)

	// Vertices Solid433
	name v232 (0.00000000 98.95000000 46.70000000)
	name v233 (-5.77668040 99.80019626 46.70000000)
	name v234 (0.00000000 98.95000000 54.00000000)
	name v235 (-5.77668040 99.80019626 54.00000000)

	// Vertices Solid434
	name v236 (-15.74995669 106.59268908 46.70000000)
	name v237 (-15.74995669 106.59268908 54.00000000)

	// Vertices Solid437
	name v238 (0.00000000 98.95000000 40.20000000)
	name v239 (-5.77668040 99.80019626 40.20000000)

	// Vertices Solid439
	name v240 (0.00000000 98.95000000 -40.20000000)
	name v241 (-5.77668040 99.80019626 -40.20000000)

	// Vertices block80
	name v242 (0.00000000 98.95000000 -37.51500000)
	name v243 (-5.77668040 99.80019626 -37.51500000)

	// Vertices block97
	name v244 (0.00000000 98.95000000 37.51500000)
	name v245 (-5.77668040 99.80019626 37.51500000)

	// Vertices block25
	name v246 (-0.00000000 97.69614802 -36.30815763)
	name v247 (0.00000000 98.95000000 -36.75000000)
	name v248 (-5.77668040 99.80019626 -36.75000000)
	name v249 (-6.13793238 98.59951237 -36.30815763)

	// Vertices block33
	name v250 (-6.99648507 137.78966995 -37.51500000)
	name v251 (-6.99648507 137.78966995 -36.75000000)
	name v252 (-7.43401907 138.96470560 -36.30815763)

	// Vertices block35
	name v253 (0.00000000 139.05000000 -37.51500000)
	name v254 (0.00000000 139.05000000 -36.75000000)
	name v255 (0.00000000 140.30385198 -36.30815763)

	// Vertices block56
	name v256 (-0.00000000 97.69614802 36.30815763)
	name v257 (0.00000000 98.95000000 36.75000000)
	name v258 (-5.77668040 99.80019626 36.75000000)
	name v259 (-6.13793238 98.59951237 36.30815763)

	// Vertices block64
	name v260 (-6.99648507 137.78966995 36.75000000)
	name v261 (-7.43401907 138.96470560 36.30815763)
	name v262 (-6.99648507 137.78966995 37.51500000)

	// Vertices block66
	name v263 (0.00000000 139.05000000 36.75000000)
	name v264 (0.00000000 140.30385198 36.30815763)
	name v265 (0.00000000 139.05000000 37.51500000)

	// Vertices block63
	name v266 (-7.69438881 139.66395124 34.75000000)

	// Vertices block65
	name v267 (0.00000000 141.05000000 34.75000000)

	// Vertices block55
	name v268 (0.00000000 96.95000000 34.75000000)
	name v269 (-6.35290787 97.88500387 34.75000000)

	// Vertices block32
	name v270 (-7.69438881 139.66395124 -34.75000000)

	// Vertices block34
	name v271 (0.00000000 141.05000000 -34.75000000)

	// Vertices block24
	name v272 (0.00000000 96.95000000 -34.75000000)
	name v273 (-6.35290787 97.88500387 -34.75000000)

	// Vertices block69
	name v274 (-5.15522760 134.80146004 36.75000000)
	name v275 (0.00000000 134.90000000 36.75000000)
	name v276 (0.00000000 136.14647154 36.75000000)
	name v277 (-5.21850443 136.14647154 36.75000000)
	name v278 (-5.15522760 134.80146004 37.51500000)
	name v279 (0.00000000 134.90000000 37.51500000)
	name v280 (0.00000000 136.14647154 37.51500000)
	name v281 (-5.21850443 136.14647154 37.51500000)

	// Vertices block71
	name v282 (-5.13642944 134.40188649 36.75000000)
	name v283 (0.00000000 134.50000000 36.75000000)
	name v284 (-5.13642944 134.40188649 37.51500000)
	name v285 (0.00000000 134.50000000 37.51500000)

	// Vertices block73
	name v286 (-3.87928993 107.68014492 36.75000000)
	name v287 (0.00000000 107.75000000 36.75000000)
	name v288 (-3.87928993 107.68014492 37.51500000)
	name v289 (0.00000000 107.75000000 37.51500000)

	// Vertices block75
	name v290 (-3.67557580 103.35000000 36.75000000)
	name v291 (0.00000000 103.35000000 36.75000000)
	name v292 (-3.67557580 103.35000000 37.51500000)
	name v293 (0.00000000 103.35000000 37.51500000)

	// Vertices block109
	name v294 (-5.13642944 134.40188649 40.20000000)
	name v295 (0.00000000 134.50000000 40.20000000)
	name v296 (0.00000000 134.90000000 40.20000000)
	name v297 (-5.15522760 134.80146004 40.20000000)

	// Vertices block102
	name v298 (-3.87928993 107.68014492 40.20000000)
	name v299 (0.00000000 107.75000000 40.20000000)

	// Vertices block101
	name v300 (-3.67557580 103.35000000 40.20000000)
	name v301 (0.00000000 103.35000000 40.20000000)

	// Vertices Solid481
	name v302 (-5.13642944 134.40188649 46.70000000)
	name v303 (0.00000000 134.50000000 46.70000000)
	name v304 (0.00000000 134.90000000 46.70000000)
	name v305 (-5.15522760 134.80146004 46.70000000)

	// Vertices Solid483
	name v306 (-4.76751453 126.56023588 41.70000000)
	name v307 (0.00000000 126.65000000 41.70000000)
	name v308 (0.00000000 130.77459848 41.70000000)
	name v309 (-4.96135245 130.68045221 41.70000000)
	name v310 (-4.76751453 126.56023588 46.10000000)
	name v311 (0.00000000 126.65000000 46.10000000)
	name v312 (0.00000000 130.77459848 46.10000000)
	name v313 (-4.96135245 130.68045223 46.10000000)

	// Vertices Solid485
	name v314 (-4.20356415 114.57291368 41.70000000)
	name v315 (0.00000000 114.65000000 41.70000000)
	name v316 (-4.20356415 114.57291368 46.10000000)
	name v317 (0.00000000 114.65000000 46.10000000)

	// Vertices Solid487
	name v318 (-4.00972371 110.45264368 41.70000000)
	name v319 (0.00000000 110.52540152 41.70000000)
	name v320 (-4.00972371 110.45264366 46.10000000)
	name v321 (0.00000000 110.52540150 46.10000000)

	// Vertices Solid489
	name v322 (-3.67557580 103.35000000 46.70000000)
	name v323 (0.00000000 103.35000000 46.70000000)
	name v324 (0.00000000 107.75000000 46.70000000)
	name v325 (-3.87928993 107.68014492 46.70000000)

	// Vertices Solid491
	name v326 (-4.76751453 126.56023588 46.70000000)
	name v327 (0.00000000 126.65000000 46.70000000)
	name v328 (0.00000000 130.77459848 46.70000000)
	name v329 (-4.96135245 130.68045223 46.70000000)

	// Vertices Solid493
	name v330 (-4.20356415 114.57291368 46.70000000)
	name v331 (0.00000000 114.65000000 46.70000000)

	// Vertices Solid495
	name v332 (-4.00972371 110.45264366 46.70000000)
	name v333 (0.00000000 110.52540150 46.70000000)

	// Vertices Solid497
	name v334 (-5.13642944 134.40188649 54.00000000)
	name v335 (0.00000000 134.50000000 54.00000000)
	name v336 (0.00000000 134.90000000 54.00000000)
	name v337 (-5.15522760 134.80146004 54.00000000)

	// Vertices block135
	name v338 (-4.96135245 130.68045223 54.00000000)
	name v339 (0.00000000 130.77459850 54.00000000)

	// Vertices block125
	name v340 (-4.20356415 114.57291368 54.00000000)
	name v341 (0.00000000 114.65000000 54.00000000)
	name v342 (0.00000000 126.65000000 54.00000000)
	name v343 (-4.76751453 126.56023588 54.00000000)

	// Vertices block120
	name v344 (-4.00972371 110.45264366 54.00000000)
	name v345 (0.00000000 110.52540150 54.00000000)

	// Vertices block115
	name v346 (-3.87928993 107.68014492 54.00000000)
	name v347 (0.00000000 107.75000000 54.00000000)

	// Vertices Solid509
	name v348 (-3.67557580 103.35000000 54.00000000)
	name v349 (0.00000000 103.35000000 54.00000000)

	// Vertices block38
	name v350 (-5.15522760 134.80146004 -37.51500000)
	name v351 (0.00000000 134.90000000 -37.51500000)
	name v352 (0.00000000 136.14647154 -37.51500000)
	name v353 (-5.21850443 136.14647154 -37.51500000)
	name v354 (-5.15522760 134.80146004 -36.75000000)
	name v355 (0.00000000 134.90000000 -36.75000000)
	name v356 (0.00000000 136.14647154 -36.75000000)
	name v357 (-5.21850443 136.14647154 -36.75000000)

	// Vertices block40
	name v358 (-5.13642944 134.40188649 -37.51500000)
	name v359 (0.00000000 134.50000000 -37.51500000)
	name v360 (-5.13642944 134.40188649 -36.75000000)
	name v361 (0.00000000 134.50000000 -36.75000000)

	// Vertices block42
	name v362 (-3.87928993 107.68014492 -37.51500000)
	name v363 (0.00000000 107.75000000 -37.51500000)
	name v364 (-3.87928993 107.68014492 -36.75000000)
	name v365 (0.00000000 107.75000000 -36.75000000)

	// Vertices block44
	name v366 (-3.67557580 103.35000000 -37.51500000)
	name v367 (0.00000000 103.35000000 -37.51500000)
	name v368 (-3.67557580 103.35000000 -36.75000000)
	name v369 (0.00000000 103.35000000 -36.75000000)

	// Vertices block92
	name v370 (-5.13642944 134.40188649 -40.20000000)
	name v371 (0.00000000 134.50000000 -40.20000000)
	name v372 (0.00000000 134.90000000 -40.20000000)
	name v373 (-5.15522760 134.80146004 -40.20000000)

	// Vertices block85
	name v374 (-3.87928993 107.68014492 -40.20000000)
	name v375 (0.00000000 107.75000000 -40.20000000)

	// Vertices block84
	name v376 (-3.67557580 103.35000000 -40.20000000)
	name v377 (0.00000000 103.35000000 -40.20000000)

	// Vertices Solid525
	name v378 (-5.13642944 134.40188649 -47.60000000)
	name v379 (0.00000000 134.50000000 -47.60000000)
	name v380 (0.00000000 134.90000000 -47.60000000)
	name v381 (-5.15522760 134.80146004 -47.60000000)

	// Vertices Solid527
	name v382 (-3.67557580 103.35000000 -47.60000000)
	name v383 (0.00000000 103.35000000 -47.60000000)
	name v384 (0.00000000 107.75000000 -47.60000000)
	name v385 (-3.87928993 107.68014492 -47.60000000)

	// Vertices Solid529
	name v386 (-5.13642944 134.40188649 -54.00000000)
	name v387 (0.00000000 134.50000000 -54.00000000)
	name v388 (0.00000000 134.90000000 -54.00000000)
	name v389 (-5.15522760 134.80146004 -54.00000000)

	// Vertices Solid531
	name v390 (-3.87928993 107.68014492 -54.00000000)
	name v391 (0.00000000 107.75000000 -54.00000000)

	// Vertices Solid533
	name v392 (-3.67557580 103.35000000 -54.00000000)
	name v393 (0.00000000 103.35000000 -54.00000000)

	// Vertices Solid557
	name v394 (-19.08241714 133.13944328 54.00000000)
	name v395 (-18.73845567 133.59221639 54.00000000)

	// Vertices Solid558
	name v396 (-30.01807399 131.51777535 54.00000000)
	name v397 (-29.92906562 131.12780419 54.00000000)

	// Vertices block132
	name v398 (-17.14773374 129.64548135 46.70000000)
	name v399 (-17.14773374 129.64548137 54.00000000)

	// Vertices block127
	name v400 (-17.34067906 125.45725706 46.70000000)
	name v401 (-17.34067906 125.45725706 54.00000000)

	// Vertices block122
	name v402 (-17.90334837 113.24351026 46.70000000)
	name v403 (-17.90334837 113.24351026 54.00000000)

	// Vertices block117
	name v404 (-18.09728710 109.03372220 46.70000000)
	name v405 (-18.09728710 109.03372220 54.00000000)

	// Vertices block134
	name v406 (-13.81564382 130.04277601 46.70000000)
	name v407 (-13.81564381 130.04277603 54.00000000)

	// Vertices block129
	name v408 (-14.16101040 125.85582340 46.70000000)
	name v409 (-14.16101040 125.85582340 54.00000000)

	// Vertices block124
	name v410 (-15.16847152 113.64215755 46.70000000)
	name v411 (-15.16847152 113.64215755 54.00000000)

	// Vertices block119
	name v412 (-15.51584250 109.43090518 46.70000000)
	name v413 (-15.51584250 109.43090518 54.00000000)

	// Vertices Solid584
	name v414 (-17.34067906 125.45725706 41.70000000)
	name v415 (-17.14773374 129.64548135 41.70000000)
	name v416 (-17.34067906 125.45725706 46.10000000)
	name v417 (-17.14773374 129.64548137 46.10000000)

	// Vertices Solid586
	name v418 (-17.90334837 113.24351026 41.70000000)
	name v419 (-17.90334837 113.24351026 46.10000000)

	// Vertices Solid588
	name v420 (-18.09728710 109.03372222 41.70000000)
	name v421 (-18.09728710 109.03372220 46.10000000)

	// Vertices Solid589
	name v422 (-14.16101040 125.85582340 41.70000000)
	name v423 (-13.81564382 130.04277601 41.70000000)
	name v424 (-14.16101040 125.85582340 46.10000000)
	name v425 (-13.81564381 130.04277603 46.10000000)

	// Vertices Solid591
	name v426 (-15.16847152 113.64215755 41.70000000)
	name v427 (-15.16847152 113.64215755 46.10000000)

	// Vertices Solid593
	name v428 (-15.51584250 109.43090520 41.70000000)
	name v429 (-15.51584250 109.43090518 46.10000000)
);

edges
(
	// Edges for block96
	arc v3 v2 (-3.24343443 96.96240126 37.51500000)
	arc v0 v1 (-3.42350570 96.43925346 37.51500000)
	arc v7 v6 (-3.24343443 96.96240126 40.20000000)
	arc v4 v5 (-3.42350570 96.43925346 40.20000000)

	// Edges for block53
	arc v11 v10 (-3.24343443 96.96240126 34.75000000)
	arc v8 v9 (-3.42350570 96.43925346 34.75000000)

	// Edges for block50
	arc v15 v14 (-4.14558304 141.43925955 34.75000000)
	arc v12 v13 (-3.94900490 140.92215741 34.75000000)
	arc v16 v17 (-3.94900490 140.92215741 37.51500000)
	arc v19 v18 (-4.14558304 141.43925955 37.51500000)

	// Edges for block2
	arc v23 v22 (-3.24343443 96.96240126 -34.75000000)
	arc v20 v21 (-3.42350570 96.43925346 -34.75000000)

	// Edges for block11
	arc v27 v26 (-4.14558304 141.43925955 -34.75000000)
	arc v24 v25 (-3.94900490 140.92215741 -34.75000000)

	// Edges for block19
	arc v31 v30 (-4.14558304 141.43925955 -37.51500000)
	arc v28 v29 (-3.94900490 140.92215741 -37.51500000)

	// Edges for block79
	arc v36 v37 (-3.42350570 96.43925346 -37.51500000)
	arc v39 v38 (-3.24343443 96.96240126 -37.51500000)
	arc v32 v33 (-3.42350570 96.43925346 -40.20000000)
	arc v35 v34 (-3.24343443 96.96240126 -40.20000000)

	// Edges for block77
	arc v44 v36 (-14.17758601 99.94590451 -37.51500000)
	arc v44 v45 (-21.90166342 105.50061440 -37.51500000)
	arc v36 v43 (-14.19974991 95.44955266 -37.51500000)
	arc v41 v32 (-14.17758601 99.94590451 -40.20000000)
	arc v41 v42 (-21.90166342 105.50061440 -40.20000000)
	arc v32 v40 (-14.19974991 95.44955266 -40.20000000)

	// Edges for block93
	arc v51 v50 (-24.52637424 132.24487501 -37.51500000)
	arc v51 v52 (-18.91179145 133.36685923 -37.51500000)
	arc v52 v53 (-24.40032013 132.67491993 -37.51500000)
	arc v46 v47 (-24.52637424 132.24487501 -40.20000000)
	arc v47 v48 (-18.91179145 133.36685923 -40.20000000)
	arc v49 v48 (-24.40032013 132.67491993 -40.20000000)

	// Edges for block23
	arc v20 v55 (-14.17758601 99.94590451 -34.75000000)
	arc v20 v54 (-14.19974991 95.44955266 -34.75000000)
	arc v56 v55 (-21.90166342 105.50061440 -34.75000000)

	// Edges for block0
	arc v58 v8 (-14.17758601 99.94590451 34.75000000)
	arc v8 v57 (-14.19974991 95.44955266 34.75000000)
	arc v58 v59 (-21.90166342 105.50061440 34.75000000)

	// Edges for block54
	arc v0 v61 (-14.17758601 99.94590451 37.51500000)
	arc v0 v60 (-14.19974991 95.44955266 37.51500000)
	arc v61 v62 (-21.90166342 105.50061440 37.51500000)

	// Edges for block94
	arc v4 v64 (-14.17758601 99.94590451 40.20000000)
	arc v63 v4 (-14.19974991 95.44955266 40.20000000)
	arc v65 v64 (-21.90166342 105.50061440 40.20000000)

	// Edges for block110
	arc v68 v67 (-18.91179145 133.36685923 37.51500000)
	arc v67 v66 (-24.52637424 132.24487501 37.51500000)
	arc v68 v69 (-24.40032013 132.67491993 37.51500000)
	arc v71 v72 (-18.91179145 133.36685923 40.20000000)
	arc v70 v71 (-24.52637424 132.24487501 40.20000000)
	arc v73 v72 (-24.40032013 132.67491993 40.20000000)

	// Edges for block78
	arc v44 v75 (-19.02361415 106.05736469 -37.51500000)
	arc v41 v74 (-19.02361415 106.05736469 -40.20000000)
	arc v39 v75 (-13.03963460 100.94055498 -37.51500000)
	arc v74 v35 (-13.03963460 100.94055498 -40.20000000)

	// Edges for block88
	arc v75 v77 (-22.25140034 120.02508922 -37.51500000)
	arc v51 v77 (-18.02858845 133.28623334 -37.51500000)
	arc v51 v44 (-23.74133317 119.64156016 -37.51500000)
	arc v74 v76 (-22.25140034 120.02508922 -40.20000000)
	arc v41 v47 (-23.74133317 119.64156016 -40.20000000)
	arc v47 v76 (-18.02858845 133.28623334 -40.20000000)

	// Edges for block21
	arc v78 v55 (-19.02361415 106.05736469 -34.75000000)
	arc v23 v78 (-13.03963460 100.94055498 -34.75000000)

	// Edges for block1
	arc v58 v79 (-19.02361415 106.05736469 34.75000000)
	arc v11 v79 (-13.03963460 100.94055498 34.75000000)

	// Edges for block52
	arc v80 v61 (-19.02361415 106.05736469 37.51500000)
	arc v80 v3 (-13.03963460 100.94055498 37.51500000)

	// Edges for block95
	arc v81 v64 (-19.02361415 106.05736469 40.20000000)
	arc v81 v7 (-13.03963460 100.94055498 40.20000000)

	// Edges for block105
	arc v67 v61 (-23.74133317 119.64156016 37.51500000)
	arc v82 v67 (-18.02858845 133.28623334 37.51500000)
	arc v80 v82 (-22.25140034 120.02508922 37.51500000)
	arc v71 v64 (-23.74133317 119.64156016 40.20000000)
	arc v81 v83 (-22.25140034 120.02508922 40.20000000)
	arc v83 v71 (-18.02858845 133.28623334 40.20000000)

	// Edges for block18
	arc v52 v84 (-17.65890726 133.73919767 -37.51500000)
	arc v85 v86 (-17.65890726 133.73919767 -34.75000000)
	arc v52 v31 (-14.04598124 138.15131617 -37.51500000)
	arc v28 v84 (-12.53938590 137.41030761 -37.51500000)