/*--------------------------------*- C++ -*----------------------------------*\
  =========                 |
  \\      /  F ield         | OpenFOAM: The Open Source CFD Toolbox
   \\    /   O peration     | Website:  https://openfoam.org
    \\  /    A nd           | Version:  13
     \\/     M anipulation  |
\*---------------------------------------------------------------------------*/
FoamFile
{
	format      ascii;
	class       dictionary;
	object      blockMeshDict;
}
// * * * * * * * * * * * * * * * * * * * * * * * * * * * * * * * * * * * * * //

convertToMeters 0.001;

geometry
{
}

vertices
(
	// Vertices block0
	name v0 (-21.47327013 94.08054353 -34.75000000) //* f1 (1 2 3)
	name v1 (-6.84270122 96.25709034 -34.75000000)
	name v2 (-19.81818854 105.91176471 -34.75000000)
	name v3 (-23.97663063 105.04848254 -34.75000000)
	name v4 (-21.47327013 94.08054353 34.75000000)
	name v5 (-6.84270122 96.25709034 34.75000000)
	name v6 (-19.81818854 105.91176471 34.75000000)
	name v7 (-23.97663063 105.04848254 34.75000000)

	// Vertices block1
	name v9 (-6.41773346 97.66954473 -34.75000000)
	name v10 (-18.22797054 106.19700368 -34.75000000)
	name v13 (-6.41773346 97.66954473 34.75000000)
	name v14 (-18.22797054 106.19700368 34.75000000)

	// Vertices block2
	name v17 (0.00000000 96.50000000 -34.75000000)
	name v18 (0.00000000 96.72500000 -34.75000000)
	name v21 (0.00000000 96.50000000 34.75000000)
	name v22 (0.00000000 96.72500000 34.75000000)

	// Vertices block3
	name v26 (0.00000000 96.95000000 -34.75000000)
	name v27 (-6.35290787 97.88500387 -34.75000000)
	name v30 (0.00000000 96.95000000 34.75000000)
	name v31 (-6.35290787 97.88500387 34.75000000)

	// Vertices block4
	name v34 (-17.98213057 106.23890756 -34.75000000)
	name v38 (-17.98213057 106.23890756 34.75000000)

	// Vertices block5
	name v42 (-16.97363152 133.42468225 -34.75000000)
	name v43 (-19.08241714 133.13944328 -34.75000000)
	name v46 (-16.97363152 133.42468225 34.75000000)
	name v47 (-19.08241714 133.13944328 34.75000000)

	// Vertices block6
	name v50 (-16.64092502 133.46658613 -34.75000000)
	name v54 (-16.64092502 133.46658613 34.75000000)

	// Vertices block7
	name v58 (-16.57820699 133.87745536 -34.75000000)
	name v59 (-18.73845567 133.59221639 -34.75000000)
	name v62 (-16.57820699 133.87745536 34.75000000)
	name v63 (-18.73845567 133.59221639 34.75000000)

	// Vertices block8
	name v66 (-16.23623170 133.91935924 -34.75000000)
	name v70 (-16.23623170 133.91935924 34.75000000)

	// Vertices block9
	name v74 (-7.77290299 139.87480788 -34.75000000)
	name v75 (-8.28760700 141.25709034 -34.75000000)
	name v78 (-7.77290299 139.87480788 34.75000000)
	name v79 (-8.28760700 141.25709034 34.75000000)

	// Vertices block10
	name v82 (-7.69438881 139.66395124 -34.75000000)
	name v86 (-7.69438881 139.66395124 34.75000000)

	// Vertices block11
	name v90 (0.00000000 141.27500000 -34.75000000)
	name v91 (0.00000000 141.50000000 -34.75000000)
	name v94 (0.00000000 141.27500000 34.75000000)
	name v95 (0.00000000 141.50000000 34.75000000)

	// Vertices block12
	name v98 (0.00000000 141.05000000 -34.75000000)
	name v102 (0.00000000 141.05000000 34.75000000)

	// Vertices block13
	name v104 (-30.01807399 131.51777535 -34.75000000)
	name v107 (-31.48671215 137.95229957 -34.75000000)
	name v108 (-30.01807399 131.51777535 34.75000000)
	name v111 (-31.48671215 137.95229957 34.75000000)

	// Vertices block14
	name v112 (-29.92906562 131.12780419 -34.75000000)
	name v116 (-29.92906562 131.12780419 34.75000000)

	// Vertices block15
	name v120 (-30.01807399 131.51777535 -37.51500000)
	name v121 (-18.73845567 133.59221639 -37.51500000)
	name v122 (-8.28760700 141.25709034 -37.51500000)
	name v123 (-31.48671215 137.95229957 -37.51500000)

	// Vertices block16
	name v129 (-29.92906562 131.12780419 -37.51500000)
	name v130 (-19.08241714 133.13944328 -37.51500000)

	// Vertices block17
	name v138 (-16.97363152 133.42468225 -37.51500000)
	name v139 (-16.57820699 133.87745536 -37.51500000)

	// Vertices block18
	name v147 (-7.77290299 139.87480788 -37.51500000)

	// Vertices block19
	name v155 (0.00000000 141.27500000 -37.51500000)
	name v156 (0.00000000 141.50000000 -37.51500000)

	// Vertices block20
	name v161 (-19.81818854 105.91176471 -37.51500000)
	name v162 (-18.22797054 106.19700368 -37.51500000)

	// Vertices block21
	name v169 (-6.84270122 96.25709034 -37.51500000)
	name v170 (-6.41773346 97.66954473 -37.51500000)

	// Vertices block22
	name v178 (0.00000000 96.50000000 -37.51500000)
	name v179 (0.00000000 96.72500000 -37.51500000)

	// Vertices block23
	name v185 (-21.47327013 94.08054353 -37.51500000)
	name v188 (-23.97663063 105.04848254 -37.51500000)

	// Vertices block24
	name v195 (0.00000000 97.69614802 -36.30815763)
	name v196 (-6.13793238 98.59951237 -36.30815763)

	// Vertices block25
	name v203 (0.00000000 98.95000000 -37.51500000)
	name v204 (-5.77668040 99.80019626 -37.51500000)
	name v207 (0.00000000 98.95000000 -36.75000000)
	name v208 (-5.77668040 99.80019626 -36.75000000)

	// Vertices block26
	name v212 (-17.15980973 106.37482517 -36.30815763)

	// Vertices block27
	name v220 (-15.74995669 106.59268908 -37.51500000)
	name v224 (-15.74995669 106.59268908 -36.75000000)

	// Vertices block28
	name v228 (-15.51196292 133.60250374 -36.30815763)

	// Vertices block29
	name v236 (-13.50404394 133.82036765 -37.51500000)
	name v240 (-13.50404394 133.82036765 -36.75000000)

	// Vertices block30
	name v244 (-15.07291439 134.05527685 -36.30815763)

	// Vertices block31
	name v252 (-12.98975255 134.27314076 -37.51500000)
	name v256 (-12.98975255 134.27314076 -36.75000000)

	// Vertices block32
	name v262 (-7.43401907 138.96470560 -36.30815763)

	// Vertices block33
	name v270 (-6.99648507 137.78966995 -37.51500000)
	name v271 (-6.99648507 137.78966995 -36.75000000)

	// Vertices block34
	name v278 (0.00000000 140.30385198 -36.30815763)

	// Vertices block35
	name v286 (0.00000000 139.05000000 -37.51500000)
	name v287 (0.00000000 139.05000000 -36.75000000)

	// Vertices block36
	name v289 (-5.21850443 136.14647154 -37.51500000)
	name v290 (0.00000000 136.14647154 -37.51500000)
	name v293 (-5.21850443 136.14647154 -36.75000000)
	name v294 (0.00000000 136.14647154 -36.75000000)

	// Vertices block37
	name v298 (-5.15522760 134.80146004 -37.51500000)
	name v302 (-5.15522760 134.80146004 -36.75000000)

	// Vertices block38
	name v306 (0.00000000 134.90000000 -37.51500000)
	name v310 (0.00000000 134.90000000 -36.75000000)

	// Vertices block39
	name v314 (-5.13642944 134.40188649 -37.51500000)
	name v318 (-5.13642944 134.40188649 -36.75000000)

	// Vertices block40
	name v322 (0.00000000 134.50000000 -37.51500000)
	name v326 (0.00000000 134.50000000 -36.75000000)

	// Vertices block41
	name v330 (-3.87928993 107.68014492 -37.51500000)
	name v334 (-3.87928993 107.68014492 -36.75000000)

	// Vertices block42
	name v338 (0.00000000 107.75000000 -37.51500000)
	name v342 (0.00000000 107.75000000 -36.75000000)

	// Vertices block43
	name v346 (-3.67557580 103.35000000 -37.51500000)
	name v350 (-3.67557580 103.35000000 -36.75000000)

	// Vertices block44
	name v354 (0.00000000 103.35000000 -37.51500000)
	name v358 (0.00000000 103.35000000 -36.75000000)

	// Vertices block46
	name v369 (-30.01807399 131.51777535 37.51500000)
	name v370 (-18.73845567 133.59221639 37.51500000)
	name v371 (-8.28760700 141.25709034 37.51500000)
	name v372 (-31.48671215 137.95229957 37.51500000)

	// Vertices block47
	name v373 (-29.92906562 131.12780419 37.51500000)
	name v374 (-19.08241714 133.13944328 37.51500000)

	// Vertices block48
	name v375 (-16.97363152 133.42468225 37.51500000)
	name v376 (-16.57820699 133.87745536 37.51500000)

	// Vertices block49
	name v377 (-7.77290299 139.87480788 37.51500000)

	// Vertices block50
	name v378 (0.00000000 141.27500000 37.51500000)
	name v379 (0.00000000 141.50000000 37.51500000)

	// Vertices block51
	name v380 (-19.81818854 105.91176471 37.51500000)
	name v381 (-18.22797054 106.19700368 37.51500000)

	// Vertices block52
	name v382 (-6.84270122 96.25709034 37.51500000)
	name v383 (-6.41773346 97.66954473 37.51500000)

	// Vertices block53
	name v384 (0.00000000 96.50000000 37.51500000)
	name v385 (0.00000000 96.72500000 37.51500000)

	// Vertices block54
	name v386 (-21.47327013 94.08054353 37.51500000)
	name v387 (-23.97663063 105.04848254 37.51500000)

	// Vertices block55
	name v388 (0.00000000 97.69614802 36.30815763)
	name v389 (-6.13793238 98.59951237 36.30815763)

	// Vertices block56
	name v390 (0.00000000 98.95000000 37.51500000)
	name v391 (-5.77668040 99.80019626 37.51500000)
	name v392 (0.00000000 98.95000000 36.75000000)
	name v393 (-5.77668040 99.80019626 36.75000000)

	// Vertices block57
	name v394 (-17.15980973 106.37482517 36.30815763)

	// Vertices block58
	name v395 (-15.74995669 106.59268908 37.51500000)
	name v396 (-15.74995669 106.59268908 36.75000000)

	// Vertices block59
	name v397 (-15.51196292 133.60250374 36.30815763)

	// Vertices block60
	name v398 (-13.50404394 133.82036765 37.51500000)
	name v399 (-13.50404394 133.82036765 36.75000000)

	// Vertices block61
	name v400 (-15.07291439 134.05527685 36.30815763)

	// Vertices block62
	name v401 (-12.98975255 134.27314076 37.51500000)
	name v402 (-12.98975255 134.27314076 36.75000000)

	// Vertices block63
	name v403 (-7.43401907 138.96470560 36.30815763)

	// Vertices block64
	name v404 (-6.99648507 137.78966995 37.51500000)
	name v405 (-6.99648507 137.78966995 36.75000000)

	// Vertices block65
	name v406 (0.00000000 140.30385198 36.30815763)

	// Vertices block66
	name v407 (0.00000000 139.05000000 37.51500000)
	name v408 (0.00000000 139.05000000 36.75000000)

	// Vertices block67
	name v409 (-5.21850443 136.14647154 37.51500000)
	name v410 (0.00000000 136.14647154 37.51500000)
	name v411 (-5.21850443 136.14647154 36.75000000)
	name v412 (0.00000000 136.14647154 36.75000000)

	// Vertices block68
	name v413 (-5.15522760 134.80146004 37.51500000)
	name v414 (-5.15522760 134.80146004 36.75000000)

	// Vertices block69
	name v415 (0.00000000 134.90000000 37.51500000)
	name v416 (0.00000000 134.90000000 36.75000000)

	// Vertices block70
	name v417 (-5.13642944 134.40188649 37.51500000)
	name v418 (-5.13642944 134.40188649 36.75000000)

	// Vertices block71
	name v419 (0.00000000 134.50000000 37.51500000)
	name v420 (0.00000000 134.50000000 36.75000000)

	// Vertices block72
	name v421 (-3.87928993 107.68014492 37.51500000)
	name v422 (-3.87928993 107.68014492 36.75000000)

	// Vertices block73
	name v423 (0.00000000 107.75000000 37.51500000)
	name v424 (0.00000000 107.75000000 36.75000000)

	// Vertices block74
	name v425 (-3.67557580 103.35000000 37.51500000)
	name v426 (-3.67557580 103.35000000 36.75000000)

	// Vertices block75
	name v427 (0.00000000 103.35000000 37.51500000)
	name v428 (0.00000000 103.35000000 36.75000000)

	// Vertices block77
	name v429 (-21.47327013 94.08054353 -40.20000000)
	name v430 (-6.84270122 96.25709034 -40.20000000)
	name v431 (-19.81818854 105.91176471 -40.20000000)
	name v432 (-23.97663063 105.04848254 -40.20000000)

	// Vertices block78
	name v433 (-6.41773346 97.66954473 -40.20000000)
	name v434 (-18.22797054 106.19700368 -40.20000000)

	// Vertices block79
	name v435 (0.00000000 96.50000000 -40.20000000)
	name v436 (0.00000000 96.72500000 -40.20000000)

	// Vertices block80
	name v437 (0.00000000 98.95000000 -40.20000000)
	name v438 (-5.77668040 99.80019626 -40.20000000)

	// Vertices block81
	name v439 (-15.74995669 106.59268908 -40.20000000)

	// Vertices block82
	name v440 (-3.67557580 103.35000000 -40.20000000)
	name v441 (-3.87928993 107.68014492 -40.20000000)

	// Vertices block83
	name v442 (0.00000000 103.35000000 -40.20000000)

	// Vertices block84
	name v443 (0.00000000 107.75000000 -40.20000000)

	// Vertices block85
	name v444 (0.00000000 134.50000000 -40.20000000)
	name v445 (-5.13642944 134.40188649 -40.20000000)

	// Vertices block86
	name v446 (-13.50404394 133.82036765 -40.20000000)

	// Vertices block87
	name v447 (-16.97363152 133.42468225 -40.20000000)

	// Vertices block88
	name v448 (-19.08241714 133.13944328 -40.20000000)

	// Vertices block89
	name v449 (-16.57820699 133.87745536 -40.20000000)
	name v450 (-18.73845567 133.59221639 -40.20000000)

	// Vertices block90
	name v451 (-12.98975255 134.27314076 -40.20000000)

	// Vertices block91
	name v452 (-5.15522760 134.80146004 -40.20000000)

	// Vertices block92
	name v453 (0.00000000 134.90000000 -40.20000000)

	// Vertices block93
	name v454 (-29.92906562 131.12780419 -40.20000000)
	name v455 (-30.01807399 131.51777535 -40.20000000)

	// Vertices block94
	name v456 (-21.47327013 94.08054353 40.20000000)
	name v457 (-6.84270122 96.25709034 40.20000000)
	name v458 (-19.81818854 105.91176471 40.20000000)
	name v459 (-23.97663063 105.04848254 40.20000000)

	// Vertices block95
	name v460 (-6.41773346 97.66954473 40.20000000)
	name v461 (-18.22797054 106.19700368 40.20000000)

	// Vertices block96
	name v462 (0.00000000 96.50000000 40.20000000)
	name v463 (0.00000000 96.72500000 40.20000000)

	// Vertices block97
	name v464 (0.00000000 98.95000000 40.20000000)
	name v465 (-5.77668040 99.80019626 40.20000000)

	// Vertices block98
	name v466 (-15.74995669 106.59268908 40.20000000)

	// Vertices block99
	name v467 (-3.67557580 103.35000000 40.20000000)
	name v468 (-3.87928993 107.68014492 40.20000000)

	// Vertices block100
	name v469 (0.00000000 103.35000000 40.20000000)

	// Vertices block101
	name v470 (0.00000000 107.75000000 40.20000000)

	// Vertices block102
	name v471 (0.00000000 134.50000000 40.20000000)
	name v472 (-5.13642944 134.40188649 40.20000000)

	// Vertices block103
	name v473 (-13.50404394 133.82036765 40.20000000)

	// Vertices block104
	name v474 (-16.97363152 133.42468225 40.20000000)

	// Vertices block105
	name v475 (-19.08241714 133.13944328 40.20000000)

	// Vertices block106
	name v476 (-16.57820699 133.87745536 40.20000000)
	name v477 (-18.73845567 133.59221639 40.20000000)

	// Vertices block107
	name v478 (-12.98975255 134.27314076 40.20000000)

	// Vertices block108
	name v479 (-5.15522760 134.80146004 40.20000000)

	// Vertices block109
	name v480 (0.00000000 134.90000000 40.20000000)

	// Vertices block110
	name v481 (-29.92906562 131.12780419 40.20000000)
	name v482 (-30.01807399 131.51777535 40.20000000)

	// Vertices block77e1
	name v429e1 (-21.47327013 94.08054353 -47.60000000)
	name v430e1 (-6.84270122 96.25709034 -47.60000000)
	name v431e1 (-19.81818854 105.91176471 -47.60000000)
	name v432e1 (-23.97663063 105.04848254 -47.60000000)

	// Vertices block77e2
	name v429e2 (-21.47327013 94.08054353 -54.00000000)
	name v430e2 (-6.84270122 96.25709034 -54.00000000)
	name v431e2 (-19.81818854 105.91176471 -54.00000000)
	name v432e2 (-23.97663063 105.04848254 -54.00000000)

	// Vertices block78e1
	name v433e1 (-6.41773346 97.66954473 -47.60000000)
	name v434e1 (-18.22797054 106.19700368 -47.60000000)

	// Vertices block78e2
	name v433e2 (-6.41773346 97.66954473 -54.00000000)
	name v434e2 (-18.22797054 106.19700368 -54.00000000)

	// Vertices block79e1
	name v435e1 (0.00000000 96.50000000 -47.60000000)
	name v436e1 (0.00000000 96.72500000 -47.60000000)

	// Vertices block79e2
	name v435e2 (0.00000000 96.50000000 -54.00000000)
	name v436e2 (0.00000000 96.72500000 -54.00000000)

	// Vertices block80e1
	name v437e1 (0.00000000 98.95000000 -47.60000000)
	name v438e1 (-5.77668040 99.80019626 -47.60000000)

	// Vertices block80e2
	name v437e2 (0.00000000 98.95000000 -54.00000000)
	name v438e2 (-5.77668040 99.80019626 -54.00000000)

	// Vertices block81e1
	name v439e1 (-15.74995669 106.59268908 -47.60000000)

	// Vertices block81e2
	name v439e2 (-15.74995669 106.59268908 -54.00000000)

	// Vertices block82e1
	name v440e1 (-3.67557580 103.35000000 -47.60000000)
	name v441e1 (-3.87928993 107.68014492 -47.60000000)

	// Vertices block82e2
	name v440e2 (-3.67557580 103.35000000 -54.00000000)
	name v441e2 (-3.87928993 107.68014492 -54.00000000)

	// Vertices block83e1
	name v442e1 (0.00000000 103.35000000 -47.60000000)

	// Vertices block83e2
	name v442e2 (0.00000000 103.35000000 -54.00000000)

	// Vertices block84e1
	name v443e1 (0.00000000 107.75000000 -47.60000000)

	// Vertices block84e2
	name v443e2 (0.00000000 107.75000000 -54.00000000)

	// Vertices block89e1
	name v447e1 (-16.97363152 133.42468225 -47.60000000)
	name v448e1 (-19.08241714 133.13944328 -47.60000000)
	name v449e1 (-16.57820699 133.87745536 -47.60000000)
	name v450e1 (-18.73845567 133.59221639 -47.60000000)

	// Vertices block89e2
	name v447e2 (-16.97363152 133.42468225 -54.00000000)
	name v448e2 (-19.08241714 133.13944328 -54.00000000)
	name v449e2 (-16.57820699 133.87745536 -54.00000000)
	name v450e2 (-18.73845567 133.59221639 -54.00000000)

	// Vertices block90e1
	name v446e1 (-13.50404394 133.82036765 -47.60000000)
	name v451e1 (-12.98975255 134.27314076 -47.60000000)

	// Vertices block90e2
	name v446e2 (-13.50404394 133.82036765 -54.00000000)
	name v451e2 (-12.98975255 134.27314076 -54.00000000)

	// Vertices block91e1
	name v445e1 (-5.13642944 134.40188649 -47.60000000)
	name v452e1 (-5.15522760 134.80146004 -47.60000000)

	// Vertices block91e2
	name v445e2 (-5.13642944 134.40188649 -54.00000000)
	name v452e2 (-5.15522760 134.80146004 -54.00000000)

	// Vertices block92e1
	name v444e1 (0.00000000 134.50000000 -47.60000000)
	name v453e1 (0.00000000 134.90000000 -47.60000000)

	// Vertices block92e2
	name v444e2 (0.00000000 134.50000000 -54.00000000)
	name v453e2 (0.00000000 134.90000000 -54.00000000)

	// Vertices block106e1
	name v474e1 (-16.97363152 133.42468225 46.70000000)
	name v475e1 (-19.08241714 133.13944328 46.70000000)
	name v476e1 (-16.57820699 133.87745536 46.70000000)
	name v477e1 (-18.73845567 133.59221639 46.70000000)

	// Vertices block106e2
	name v474e2 (-16.97363152 133.42468225 54.00000000)
	name v475e2 (-19.08241714 133.13944328 54.00000000)
	name v476e2 (-16.57820699 133.87745536 54.00000000)
	name v477e2 (-18.73845567 133.59221639 54.00000000)

	// Vertices block107e1
	name v473e1 (-13.50404394 133.82036765 46.70000000)
	name v478e1 (-12.98975255 134.27314076 46.70000000)

	// Vertices block107e2
	name v473e2 (-13.50404394 133.82036765 54.00000000)
	name v478e2 (-12.98975255 134.27314076 54.00000000)

	// Vertices block108e1
	name v472e1 (-5.13642944 134.40188649 46.70000000)
	name v479e1 (-5.15522760 134.80146004 46.70000000)

	// Vertices block108e2
	name v472e2 (-5.13642944 134.40188649 54.00000000)
	name v479e2 (-5.15522760 134.80146004 54.00000000)

	// Vertices block109e1
	name v471e1 (0.00000000 134.50000000 46.70000000)
	name v480e1 (0.00000000 134.90000000 46.70000000)

	// Vertices block109e2
	name v471e2 (0.00000000 134.50000000 54.00000000)
	name v480e2 (0.00000000 134.90000000 54.00000000)

	// Vertices block110e1
	name v481e1 (-29.92906562 131.12780419 46.70000000)
	name v482e1 (-30.01807399 131.51777535 46.70000000)

	// Vertices block110e2
	name v481e2 (-29.92906562 131.12780419 54.00000000)
	name v482e2 (-30.01807399 131.51777535 54.00000000)

	// Vertices block94e1
	name v456e1 (-21.47327013 94.08054353 46.70000000)
	name v457e1 (-6.84270122 96.25709034 46.70000000)
	name v458e1 (-19.81818854 105.91176471 46.70000000)
	name v459e1 (-23.97663063 105.04848254 46.70000000)

	// Vertices block94e2
	name v456e2 (-21.47327013 94.08054353 54.00000000)
	name v457e2 (-6.84270122 96.25709034 54.00000000)
	name v458e2 (-19.81818854 105.91176471 54.00000000)
	name v459e2 (-23.97663063 105.04848254 54.00000000)

	// Vertices block95e1
	name v460e1 (-6.41773346 97.66954473 46.70000000)
	name v461e1 (-18.22797054 106.19700368 46.70000000)

	// Vertices block95e2
	name v460e2 (-6.41773346 97.66954473 54.00000000)
	name v461e2 (-18.22797054 106.19700368 54.00000000)

	// Vertices block96e1
	name v462e1 (0.00000000 96.50000000 46.70000000)
	name v463e1 (0.00000000 96.72500000 46.70000000)

	// Vertices block96e2
	name v462e2 (0.00000000 96.50000000 54.00000000)
	name v463e2 (0.00000000 96.72500000 54.00000000)

	// Vertices block97e1
	name v464e1 (0.00000000 98.95000000 46.70000000)
	name v465e1 (-5.77668040 99.80019626 46.70000000)

	// Vertices block97e2
	name v464e2 (0.00000000 98.95000000 54.00000000)
	name v465e2 (-5.77668040 99.80019626 54.00000000)

	// Vertices block98e1
	name v466e1 (-15.74995669 106.59268908 46.70000000)

	// Vertices block98e2
	name v466e2 (-15.74995669 106.59268908 54.00000000)

	// Vertices block99e1
	name v467e1 (-3.67557580 103.35000000 46.70000000)
	name v468e1 (-3.87928993 107.68014492 46.70000000)

	// Vertices block99e2
	name v467e2 (-3.67557580 103.35000000 54.00000000)
	name v468e2 (-3.87928993 107.68014492 54.00000000)

	// Vertices block100e1
	name v469e1 (0.00000000 103.35000000 46.70000000)

	// Vertices block100e2
	name v469e2 (0.00000000 103.35000000 54.00000000)

	// Vertices block101e1
	name v470e1 (0.00000000 107.75000000 46.70000000)

	// Vertices block101e2
	name v470e2 (0.00000000 107.75000000 54.00000000)
);

edges
(
	// Edges for block0
	arc v0 v1 (-14.19974991 95.44955266 -34.75000000)
	arc v1 v2 (-14.17758601 99.94590451 -34.75000000)
	arc v2 v3 (-21.90166342 105.50061440 -34.75000000)
	arc v4 v5 (-14.19974991 95.44955266 34.75000000)
	arc v5 v6 (-14.17758601 99.94590451 34.75000000)
	arc v6 v7 (-21.90166342 105.50061440 34.75000000)

	// Edges for block1
	arc v2 v10 (-19.02361415 106.05736469 -34.75000000)
	arc v6 v14 (-19.02361415 106.05736469 34.75000000)
	arc v9 v10 (-13.03963460 100.94055498 -34.75000000)
	arc v13 v14 (-13.03963460 100.94055498 34.75000000)

	// Edges for block2
	arc v1 v17 (-3.42350570 96.43925346 -34.75000000)
	arc v18 v9 (-3.24343443 96.96240126 -34.75000000)
	arc v5 v21 (-3.42350570 96.43925346 34.75000000)
	arc v22 v13 (-3.24343443 96.96240126 34.75000000)

	// Edges for block3
	arc v26 v27 (-3.21067246 97.18500327 -34.75000000)
	arc v30 v31 (-3.21067246 97.18500327 34.75000000)

	// Edges for block4
	arc v27 v34 (-12.86450352 101.09170446 -34.75000000)
	arc v31 v38 (-12.86450352 101.09170446 34.75000000)
	arc v34 v10 (-18.10506268 106.21802674 -34.75000000)
	arc v38 v14 (-18.10506268 106.21802674 34.75000000)

	// Edges for block5
	arc v10 v42 (-22.25140034 120.02508922 -34.75000000)
	arc v42 v43 (-18.02858845 133.28623334 -34.75000000)
	arc v43 v2 (-23.74133317 119.64156016 -34.75000000)
	arc v14 v46 (-22.25140034 120.02508922 34.75000000)
	arc v46 v47 (-18.02858845 133.28623334 34.75000000)
	arc v47 v6 (-23.74133317 119.64156016 34.75000000)

	// Edges for block6
	arc v34 v50 (-22.02329709 120.08484343 -34.75000000)
	arc v50 v42 (-16.80729133 133.44573788 -34.75000000)
	arc v38 v54 (-22.02329709 120.08484343 34.75000000)
	arc v54 v46 (-16.80729133 133.44573788 34.75000000)

	// Edges for block7
	arc v42 v58 (-16.77744670 133.65240278 -34.75000000)
	arc v58 v59 (-17.65890726 133.73919767 -34.75000000)
	arc v59 v43 (-18.91179145 133.36685923 -34.75000000)
	arc v46 v62 (-16.77744670 133.65240278 34.75000000)
	arc v62 v63 (-17.65890726 133.73919767 34.75000000)
	arc v63 v47 (-18.91179145 133.36685923 34.75000000)

	// Edges for block8
	arc v50 v66 (-16.44013715 133.69436595 -34.75000000)
	arc v66 v58 (-16.40723272 133.89851648 -34.75000000)
	arc v54 v70 (-16.44013715 133.69436595 34.75000000)
	arc v70 v62 (-16.40723272 133.89851648 34.75000000)

	// Edges for block9
	arc v58 v74 (-12.53938590 137.41030761 -34.75000000)
	arc v75 v59 (-14.04598124 138.15131617 -34.75000000)
	arc v62 v78 (-12.53938590 137.41030761 34.75000000)
	arc v79 v63 (-14.04598124 138.15131617 34.75000000)

	// Edges for block10
	arc v66 v82 (-12.30523197 137.29709721 -34.75000000)
	arc v70 v86 (-12.30523197 137.29709721 34.75000000)

	// Edges for block11
	arc v74 v90 (-3.94900490 140.92215741 -34.75000000)
	arc v91 v75 (-4.14558304 141.43925955 -34.75000000)
	arc v78 v94 (-3.94900490 140.92215741 34.75000000)
	arc v95 v79 (-4.14558304 141.43925955 34.75000000)

	// Edges for block12
	arc v82 v98 (-3.90911596 140.70072147 -34.75000000)
	arc v86 v102 (-3.90911596 140.70072147 34.75000000)

	// Edges for block13
	arc v104 v59 (-24.40032013 132.67491993 -34.75000000)
	arc v75 v107 (-19.95568908 140.08576114 -34.75000000)
	arc v108 v63 (-24.40032013 132.67491993 34.75000000)
	arc v79 v111 (-19.95568908 140.08576114 34.75000000)

	// Edges for block14
	arc v112 v43 (-24.52637424 132.24487501 -34.75000000)
	arc v116 v47 (-24.52637424 132.24487501 34.75000000)

	// Edges for block15
	arc v120 v121 (-24.40032013 132.67491993 -37.51500000)
	arc v121 v122 (-14.04598124 138.15131617 -37.51500000)
	arc v122 v123 (-19.95568908 140.08576114 -37.51500000)

	// Edges for block16
	arc v129 v130 (-24.52637424 132.24487501 -37.51500000)
	arc v121 v130 (-18.91179145 133.36685923 -37.51500000)

	// Edges for block17
	arc v130 v138 (-18.02858845 133.28623334 -37.51500000)
	arc v138 v139 (-16.77744670 133.65240278 -37.51500000)
	arc v139 v121 (-17.65890726 133.73919767 -37.51500000)

	// Edges for block18
	arc v139 v147 (-12.53938590 137.41030761 -37.51500000)

	// Edges for block19
	arc v147 v155 (-3.94900490 140.92215741 -37.51500000)
	arc v156 v122 (-4.14558304 141.43925955 -37.51500000)

	// Edges for block20
	arc v161 v162 (-19.02361415 106.05736469 -37.51500000)
	arc v162 v138 (-22.25140034 120.02508922 -37.51500000)
	arc v130 v161 (-23.74133317 119.64156016 -37.51500000)

	// Edges for block21
	arc v170 v162 (-13.03963460 100.94055498 -37.51500000)
	arc v161 v169 (-14.17758601 99.94590451 -37.51500000)

	// Edges for block22
	arc v169 v178 (-3.42350570 96.43925346 -37.51500000)
	arc v179 v170 (-3.24343443 96.96240126 -37.51500000)

	// Edges for block23
	arc v185 v169 (-14.19974991 95.44955266 -37.51500000)
	arc v161 v188 (-21.90166342 105.50061440 -37.51500000)

	// Edges for block24
	arc v26 v195 (0.00000000 97.14615633 -35.61379860)
	arc v195 v196 (-3.10202680 97.92319903 -36.30815763)
	arc v196 v27 (-6.29639254 98.07284243 -35.61379860)

	// Edges for block25
	arc v195 v207 (0.00000000 98.28528776 -36.63630794)
	arc v207 v208 (-2.91945501 99.16368778 -36.75000000)
	arc v208 v196 (-5.96819313 99.16367035 -36.63630794)
	arc v203 v204 (-2.91945501 99.16368778 -37.51500000)

	// Edges for block26
	arc v196 v212 (-12.28047512 101.59183984 -36.30815763)
	BSpline v34 v212 (
		(-17.98213057 106.23890756 -34.75000000)
		(-17.96339493 106.24207708 -35.01106533)
		(-17.90686669 106.25161940 -35.26973199)
		(-17.81996805 106.26622812 -35.50490121)
		(-17.66235179 106.29253892 -35.78950143)
		(-17.51246433 106.31733675 -35.98570381)
		(-17.34961633 106.34403280 -36.15317711)
		(-17.15980973 106.37482517 -36.30815763)
	)
	BSpline v162 v212 (
		(-18.22797054 106.19700368 -37.51500000)
		(-17.90338763 106.25220568 -37.14606229)
		(-17.54705503 106.31163323 -36.74323017)
		(-17.15980973 106.37482517 -36.30815763)
	)

	// Edges for block27
	arc v208 v224 (-11.28643060 102.42836809 -36.75000000)
	arc v204 v220 (-11.28643060 102.42836809 -37.51500000)
	BSpline v212 v224 (
		(-17.15980973 106.37482517 -36.30815763)
		(-17.07124588 106.38907399 -36.36909332)
		(-16.95953110 106.40693965 -36.43735297)
		(-16.77251768 106.43657807 -36.53298485)
		(-16.61759717 106.46087528 -36.59681537)
		(-16.42433745 106.49086176 -36.65928225)
		(-16.22582853 106.52128890 -36.70553466)
		(-16.03500174 106.55018170 -36.73422256)
		(-15.74995669 106.59268908 -36.75000000)
	)

	// Edges for block28
	arc v212 v228 (-21.26494303 120.28697598 -36.30815763)
	BSpline v138 v228 (
		(-16.97363152 133.42468225 -37.51500000)
		(-16.77205840 133.45017069 -37.34526508)
		(-16.02086375 133.54243492 -36.72189305)
		(-15.51196292 133.60250374 -36.30815763)
	)
	BSpline v50 v228 (
		(-16.64092502 133.46658613 -34.75000000)
		(-16.63623502 133.46717081 -34.86230553)
		(-16.60273332 133.47134242 -35.06949248)
		(-16.53628003 133.47959186 -35.27560864)
		(-16.43828522 133.49169554 -35.47473672)
		(-16.27272766 133.51197824 -35.71161827)
		(-15.98130563 133.54717470 -36.00068409)
		(-15.51196292 133.60250374 -36.30815763)
	)

	// Edges for block29
	arc v220 v236 (-19.98213598 120.64825414 -37.51500000)
	arc v224 v240 (-19.98213598 120.64825414 -36.75000000)
	BSpline v228 v240 (
		(-15.51196292 133.60250374 -36.30815763)
		(-15.37028919 133.61887670 -36.37766573)
		(-15.17428447 133.64127765 -36.46066754)
		(-14.87094155 133.67537207 -36.56372355)
		(-14.51444998 133.71454948 -36.65195894)
		(-14.19280479 133.74907212 -36.70566504)
		(-13.84898205 133.78511014 -36.73913595)
		(-13.50404394 133.82036765 -36.75000000)
	)

	// Edges for block30
	arc v228 v244 (-15.29411426 133.83051511 -36.30815763)
	BSpline v139 v244 (
		(-16.57820699 133.87745536 -37.51500000)
		(-16.20656929 133.92295215 -37.21128643)
		(-15.63263285 133.99115937 -36.74955018)
		(-15.07291439 134.05527685 -36.30815763)
	)
	BSpline v66 v244 (
		(-16.23623170 133.91935924 -34.75000000)
		(-16.22601141 133.92059794 -34.91339997)
		(-16.16503363 133.92797201 -35.17890295)
		(-16.04583264 133.94230570 -35.44377825)
		(-15.86700133 133.96360800 -35.70015141)
		(-15.65557023 133.98848130 -35.91766222)
		(-15.39401283 134.01878364 -36.12037725)
		(-15.07291439 134.05527685 -36.30815763)
	)

	// Edges for block31
	arc v236 v252 (-13.24883256 134.04895132 -37.51500000)
	arc v240 v256 (-13.24883256 134.04895132 -36.75000000)
	BSpline v244 v256 (
		(-15.07291439 134.05527685 -36.30815763)
		(-14.89193136 134.07550254 -36.39289153)
		(-14.62911675 134.10443297 -36.49485848)
		(-14.32428751 134.13733555 -36.58717092)
		(-13.99961358 134.17160959 -36.65981384)
		(-13.66429122 134.20617402 -36.71088828)
		(-13.27433302 134.24530563 -36.74322090)
		(-12.98975255 134.27314076 -36.75000000)
	)

	// Edges for block32
	arc v244 v262 (-11.51807866 136.92171792 -36.30815763)
	arc v262 v82 (-7.62593969 139.48012517 -35.61379860)

	// Edges for block33
	arc v252 v270 (-10.14662101 136.29302119 -37.51500000)
	arc v271 v256 (-10.14662101 136.29302119 -36.75000000)
	arc v271 v262 (-7.22843765 138.41259881 -36.63630794)

	// Edges for block34